data_image0
_chemical_formula_structural       C24H8O6
_chemical_formula_sum              "C24 H8 O6"
_cell_length_a       24.027
_cell_length_b       24.027
_cell_length_c       18
_cell_angle_alpha    90
_cell_angle_beta     90
_cell_angle_gamma    90

_space_group_name_H-M_alt    "P 1"
_space_group_IT_number       1

loop_
  _space_group_symop_operation_xyz
  'x, y, z'

loop_
  _atom_site_type_symbol
  _atom_site_label
  _atom_site_symmetry_multiplicity
  _atom_site_fract_x
  _atom_site_fract_y
  _atom_site_fract_z
  _atom_site_occupancy
  C   C1        1.0  0.37953  0.60066  0.11085  1.0000
  C   C2        1.0  0.35083  0.54948  0.11163  1.0000
  C   C3        1.0  0.29063  0.54856  0.11263  1.0000
  C   C4        1.0  0.56275  0.39831  0.11180  1.0000
  C   C5        1.0  0.61875  0.50127  0.11316  1.0000
  C   C6        1.0  0.64688  0.55316  0.11049  1.0000
  C   C7        1.0  0.62044  0.39935  0.11102  1.0000
  C   C8        1.0  0.64916  0.45053  0.11185  1.0000
  C   C9        1.0  0.70937  0.45143  0.11280  1.0000
  C   C10       1.0  0.61692  0.60341  0.10802  1.0000
  C   C11       1.0  0.55909  0.50058  0.11382  1.0000
  C   C12       1.0  0.44073  0.39708  0.10919  1.0000
  C   C13       1.0  0.55928  0.60293  0.10916  1.0000
  C   C14       1.0  0.52918  0.55230  0.11310  1.0000
  C   C15       1.0  0.47081  0.44770  0.11305  1.0000
  C   C16       1.0  0.46912  0.55183  0.11360  1.0000
  C   C17       1.0  0.44090  0.49943  0.11369  1.0000
  C   C18       1.0  0.38310  0.39658  0.10796  1.0000
  C   C19       1.0  0.43723  0.60171  0.11166  1.0000
  C   C20       1.0  0.38126  0.49872  0.11296  1.0000
  C   C21       1.0  0.35313  0.44683  0.11030  1.0000
  C   C22       1.0  0.29343  0.44521  0.11219  1.0000
  C   C23       1.0  0.53087  0.44819  0.11371  1.0000
  C   C24       1.0  0.70658  0.55478  0.11227  1.0000
  H   H1        1.0  0.35598  0.63954  0.11021  1.0000
  H   H2        1.0  0.36035  0.35726  0.10602  1.0000
  H   H3        1.0  0.46244  0.35728  0.10835  1.0000
  H   H4        1.0  0.54219  0.35792  0.11227  1.0000
  H   H5        1.0  0.53758  0.64272  0.10824  1.0000
  H   H6        1.0  0.64401  0.36047  0.11035  1.0000
  H   H7        1.0  0.45781  0.64210  0.11221  1.0000
  H   H8        1.0  0.63966  0.64272  0.10605  1.0000
  O   O1        1.0  0.25881  0.58860  0.10905  1.0000
  O   O2        1.0  0.26510  0.49573  0.11630  1.0000
  O   O3        1.0  0.26476  0.40269  0.10835  1.0000
  O   O4        1.0  0.73491  0.50426  0.11638  1.0000
  O   O5        1.0  0.74117  0.41139  0.10916  1.0000
  O   O6        1.0  0.73526  0.59729  0.10838  1.0000
