data_image0
_chemical_formula_structural       O6C24H8
_chemical_formula_sum              "O6 C24 H8"
_cell_length_a       24.027
_cell_length_b       24.027
_cell_length_c       18
_cell_angle_alpha    90
_cell_angle_beta     90
_cell_angle_gamma    90

_space_group_name_H-M_alt    "P 1"
_space_group_IT_number       1

loop_
  _space_group_symop_operation_xyz
  'x, y, z'

loop_
  _atom_site_type_symbol
  _atom_site_label
  _atom_site_symmetry_multiplicity
  _atom_site_fract_x
  _atom_site_fract_y
  _atom_site_fract_z
  _atom_site_occupancy
  O   O1        1.0  0.26366  0.49979  0.17291  1.0000
  O   O2        1.0  0.73636  0.50013  0.17306  1.0000
  O   O3        1.0  0.26104  0.40695  0.16183  1.0000
  O   O4        1.0  0.73905  0.40730  0.16190  1.0000
  O   O5        1.0  0.26111  0.59284  0.16561  1.0000
  O   O6        1.0  0.73879  0.59315  0.16539  1.0000
  C   C1        1.0  0.44065  0.49994  0.17092  1.0000
  C   C2        1.0  0.55934  0.50003  0.17125  1.0000
  C   C3        1.0  0.46987  0.44797  0.16872  1.0000
  C   C4        1.0  0.53018  0.44803  0.16871  1.0000
  C   C5        1.0  0.46981  0.55202  0.16981  1.0000
  C   C6        1.0  0.53012  0.55206  0.17011  1.0000
  C   C7        1.0  0.38087  0.49988  0.17133  1.0000
  C   C8        1.0  0.61912  0.50005  0.17177  1.0000
  C   C9        1.0  0.35128  0.44871  0.16845  1.0000
  C   C10       1.0  0.64878  0.44894  0.16875  1.0000
  C   C11       1.0  0.35134  0.55101  0.17084  1.0000
  C   C12       1.0  0.64861  0.55123  0.17116  1.0000
  C   C13       1.0  0.43857  0.39807  0.16403  1.0000
  C   C14       1.0  0.56156  0.39822  0.16356  1.0000
  C   C15       1.0  0.43846  0.60184  0.16554  1.0000
  C   C16       1.0  0.56141  0.60191  0.16611  1.0000
  C   C17       1.0  0.38069  0.39837  0.16379  1.0000
  C   C18       1.0  0.61946  0.39860  0.16354  1.0000
  C   C19       1.0  0.38058  0.60140  0.16637  1.0000
  C   C20       1.0  0.61928  0.60157  0.16690  1.0000
  C   C21       1.0  0.29061  0.44824  0.16772  1.0000
  C   C22       1.0  0.70946  0.44855  0.16792  1.0000
  C   C23       1.0  0.29062  0.55144  0.17000  1.0000
  C   C24       1.0  0.70934  0.55173  0.17000  1.0000
  H   H1        1.0  0.45963  0.35801  0.16124  1.0000
  H   H2        1.0  0.54057  0.35814  0.16027  1.0000
  H   H3        1.0  0.45946  0.64192  0.16238  1.0000
  H   H4        1.0  0.54036  0.64197  0.16294  1.0000
  H   H5        1.0  0.35725  0.35956  0.16058  1.0000
  H   H6        1.0  0.64291  0.35982  0.16000  1.0000
  H   H7        1.0  0.35707  0.64020  0.16371  1.0000
  H   H8        1.0  0.64274  0.64041  0.16418  1.0000
